* SPICE NETLIST
***************************************

.SUBCKT L POS NEG SUB
.ENDS
***************************************
.SUBCKT YA2GSD O E2 E8 E4 I SR E
** N=8 EP=7 IP=0 FDC=0
.ENDS
***************************************
.SUBCKT ICV_1 1 2 3 4 5
** N=5 EP=5 IP=8 FDC=0
X0 1 2 2 2 3 2 4 YA2GSD $T=0 0 0 0 $X=2850 $Y=0
.ENDS
***************************************
.SUBCKT ICV_2
** N=1 EP=0 IP=0 FDC=0
.ENDS
***************************************
.SUBCKT ICV_3 1 2 3 4 5
** N=6 EP=5 IP=8 FDC=0
X0 1 2 2 2 3 2 4 YA2GSD $T=1349740 1096780 0 90 $X=1210240 $Y=1099630
.ENDS
***************************************
.SUBCKT ICV_4 1 2 3 4 7
** N=8 EP=5 IP=8 FDC=0
X0 3 1 1 1 2 1 4 YA2GSD $T=1349740 983520 0 90 $X=1210240 $Y=986370
.ENDS
***************************************
.SUBCKT ICV_5 1 2 4 5 9
** N=10 EP=5 IP=8 FDC=0
X0 4 1 1 1 5 1 2 YA2GSD $T=1349740 757020 0 90 $X=1210240 $Y=759870
.ENDS
***************************************
.SUBCKT ICV_6
** N=13 EP=0 IP=0 FDC=0
.ENDS
***************************************
.SUBCKT ICV_7 2 3 4 5 11
** N=12 EP=5 IP=8 FDC=0
X0 2 3 3 3 4 3 5 YA2GSD $T=1349740 417270 0 90 $X=1210240 $Y=420120
.ENDS
***************************************
.SUBCKT ICV_8 1 2 3 4 5 6 7 8
** N=10 EP=8 IP=16 FDC=0
X0 2 3 3 3 1 3 4 YA2GSD $T=1349740 190760 0 90 $X=1210240 $Y=193610
X1 5 6 6 6 7 6 4 YA2GSD $T=1349740 304020 0 90 $X=1210240 $Y=306870
.ENDS
***************************************
.SUBCKT ICV_9
** N=1 EP=0 IP=0 FDC=0
.ENDS
***************************************
.SUBCKT XMD I SMT PU PD O
** N=6 EP=5 IP=0 FDC=0
.ENDS
***************************************
.SUBCKT ICV_10 1 8 9 10 11 12 13 14 15 16 17 18 19 20 21 22 23 24 25 26
+ 47
** N=66 EP=21 IP=46 FDC=0
X0 11 10 9 9 12 9 13 YA2GSD $T=1045810 1350160 0 180 $X=986040 $Y=1210660
X1 14 10 10 10 15 10 13 YA2GSD $T=1159020 1350160 0 180 $X=1099250 $Y=1210660
X2 16 17 17 17 18 XMD $T=253340 1350160 0 180 $X=193570 $Y=1210660
X3 19 1 1 1 20 XMD $T=366550 1350160 0 180 $X=306780 $Y=1210660
X4 21 8 1 1 22 XMD $T=706180 1350160 0 180 $X=646410 $Y=1210660
X5 23 8 8 8 24 XMD $T=819390 1350160 0 180 $X=759620 $Y=1210660
X6 25 9 9 8 26 XMD $T=932600 1350160 0 180 $X=872830 $Y=1210660
.ENDS
***************************************
.SUBCKT TIE0 O VCC GND
** N=4 EP=3 IP=0 FDC=0
.ENDS
***************************************
.SUBCKT BUF1S I GND VCC O
** N=5 EP=4 IP=0 FDC=0
.ENDS
***************************************
.SUBCKT BUF1 I VCC GND O
** N=5 EP=4 IP=0 FDC=0
.ENDS
***************************************
.SUBCKT QDFFRBN D CK RB VCC GND Q
** N=7 EP=6 IP=0 FDC=0
.ENDS
***************************************
.SUBCKT INV1S I VCC O GND
** N=5 EP=4 IP=0 FDC=0
.ENDS
***************************************
.SUBCKT MXL2HS B S OB A VCC GND
** N=7 EP=6 IP=0 FDC=0
.ENDS
***************************************
.SUBCKT INV8 O I GND VCC
** N=5 EP=4 IP=0 FDC=0
.ENDS
***************************************
.SUBCKT INV12CK I O GND VCC
** N=5 EP=4 IP=0 FDC=0
.ENDS
***************************************
.SUBCKT ICV_11 1 2 3 5 6 7 8 9 10 14 15 16 17 21 22 23 24 25 26 27
+ 28 29 30 31 32 33 34 35 36 37 38 39 40 41 42 43 44 45 46 47
+ 48 49 50 51 52 53 54 55 56 83
** N=111 EP=50 IP=296 FDC=0
X0 56 3 2 TIE0 $T=1129640 1112280 1 180 $X=1127780 $Y=1111900
X1 1 2 3 7 BUF1S $T=226300 1122360 0 180 $X=223820 $Y=1116940
X2 8 2 3 1 BUF1S $T=325500 1122360 1 180 $X=323020 $Y=1121980
X3 54 2 3 38 BUF1S $T=904580 1122360 1 180 $X=902100 $Y=1121980
X4 56 2 3 55 BUF1S $T=1129020 1122360 1 180 $X=1126540 $Y=1121980
X5 31 3 2 85 BUF1 $T=646040 1082040 0 180 $X=643560 $Y=1076620
X6 38 3 2 8 BUF1 $T=679520 1122360 1 180 $X=677040 $Y=1121980
X7 55 3 2 54 BUF1 $T=1029820 1122360 1 180 $X=1027340 $Y=1121980
X8 17 16 15 3 2 14 QDFFRBN $T=517080 1082040 0 180 $X=505300 $Y=1076620
X9 89 29 27 3 2 87 QDFFRBN $T=633020 1092120 0 180 $X=621240 $Y=1086700
X10 91 29 27 3 2 93 QDFFRBN $T=634260 1092120 1 0 $X=634260 $Y=1086700
X11 94 29 27 3 2 96 QDFFRBN $T=646660 1092120 1 0 $X=646660 $Y=1086700
X12 97 33 35 3 2 98 QDFFRBN $T=659680 1082040 0 0 $X=659680 $Y=1081660
X13 34 33 35 3 2 36 QDFFRBN $T=661540 1082040 1 0 $X=661540 $Y=1076620
X14 99 33 35 3 2 100 QDFFRBN $T=672080 1082040 0 0 $X=672080 $Y=1081660
X15 102 33 35 3 2 104 QDFFRBN $T=685100 1082040 0 0 $X=685100 $Y=1081660
X16 107 33 43 3 2 105 QDFFRBN $T=711140 1082040 1 180 $X=699360 $Y=1081660
X17 110 33 43 3 2 108 QDFFRBN $T=725400 1082040 0 180 $X=713620 $Y=1076620
X18 46 33 43 3 2 44 QDFFRBN $T=738420 1082040 0 180 $X=726640 $Y=1076620
X19 47 33 48 3 2 49 QDFFRBN $T=738420 1082040 1 0 $X=738420 $Y=1076620
X20 51 50 48 3 2 111 QDFFRBN $T=761980 1082040 0 180 $X=750200 $Y=1076620
X21 52 50 48 3 2 53 QDFFRBN $T=763220 1082040 1 0 $X=763220 $Y=1076620
X22 24 3 23 2 INV1S $T=610080 1082040 1 0 $X=610080 $Y=1076620
X23 25 3 84 2 INV1S $T=613800 1082040 1 0 $X=613800 $Y=1076620
X24 87 3 88 2 INV1S $T=626820 1082040 0 0 $X=626820 $Y=1081660
X25 30 3 86 2 INV1S $T=631160 1082040 0 180 $X=629920 $Y=1076620
X26 93 3 90 2 INV1S $T=644800 1082040 1 180 $X=643560 $Y=1081660
X27 96 3 92 2 INV1S $T=652860 1082040 1 180 $X=651620 $Y=1081660
X28 98 3 95 2 INV1S $T=657200 1082040 1 180 $X=655960 $Y=1081660
X29 100 3 37 2 INV1S $T=676420 1082040 0 180 $X=675180 $Y=1076620
X30 40 3 103 2 INV1S $T=690680 1082040 1 0 $X=690680 $Y=1076620
X31 104 3 101 2 INV1S $T=695020 1082040 0 180 $X=693780 $Y=1076620
X32 105 3 106 2 INV1S $T=706180 1082040 1 0 $X=706180 $Y=1076620
X33 108 3 109 2 INV1S $T=719200 1082040 0 0 $X=719200 $Y=1081660
X34 111 3 45 2 INV1S $T=750200 1082040 0 0 $X=750200 $Y=1081660
X35 23 22 21 84 3 2 MXL2HS $T=606980 1082040 0 180 $X=601400 $Y=1076620
X36 84 85 26 86 3 2 MXL2HS $T=616280 1082040 1 0 $X=616280 $Y=1076620
X37 86 85 28 88 3 2 MXL2HS $T=623100 1082040 1 0 $X=623100 $Y=1076620
X38 88 85 89 90 3 2 MXL2HS $T=629920 1082040 0 0 $X=629920 $Y=1081660
X39 90 85 91 92 3 2 MXL2HS $T=636740 1082040 0 0 $X=636740 $Y=1081660
X40 92 31 94 95 3 2 MXL2HS $T=647280 1082040 1 0 $X=647280 $Y=1076620
X41 95 31 97 32 3 2 MXL2HS $T=654100 1082040 1 0 $X=654100 $Y=1076620
X42 37 39 99 101 3 2 MXL2HS $T=677660 1082040 1 0 $X=677660 $Y=1076620
X43 101 39 102 103 3 2 MXL2HS $T=683860 1082040 1 0 $X=683860 $Y=1076620
X44 103 41 42 106 3 2 MXL2HS $T=697500 1082040 1 0 $X=697500 $Y=1076620
X45 106 41 107 109 3 2 MXL2HS $T=713000 1082040 0 0 $X=713000 $Y=1081660
X46 109 41 110 45 3 2 MXL2HS $T=722300 1082040 0 0 $X=722300 $Y=1081660
X47 10 9 2 3 INV8 $T=333560 1112280 1 180 $X=327360 $Y=1111900
X48 5 6 2 3 INV12CK $T=220100 1122360 0 0 $X=220100 $Y=1121980
.ENDS
***************************************
.SUBCKT AN2 I1 I2 GND VCC O
** N=6 EP=5 IP=0 FDC=0
.ENDS
***************************************
.SUBCKT ND2 I1 O I2 GND VCC
** N=6 EP=5 IP=0 FDC=0
.ENDS
***************************************
.SUBCKT OAI12HS B2 B1 GND A1 VCC O
** N=7 EP=6 IP=0 FDC=0
.ENDS
***************************************
.SUBCKT NR2T O I2 GND I1 VCC
** N=6 EP=5 IP=0 FDC=0
.ENDS
***************************************
.SUBCKT ND3 I3 GND I2 O VCC I1
** N=7 EP=6 IP=0 FDC=0
.ENDS
***************************************
.SUBCKT XNR2HS I1 I2 O VCC GND
** N=6 EP=5 IP=0 FDC=0
.ENDS
***************************************
.SUBCKT XOR2H I1 I2 O GND VCC
** N=6 EP=5 IP=0 FDC=0
.ENDS
***************************************
.SUBCKT NR2 I1 VCC O I2 GND
** N=6 EP=5 IP=0 FDC=0
.ENDS
***************************************
.SUBCKT NR2P I1 VCC I2 GND O
** N=6 EP=5 IP=0 FDC=0
.ENDS
***************************************
.SUBCKT MOAI1 B1 B2 GND A1 O A2 VCC
** N=8 EP=7 IP=0 FDC=0
.ENDS
***************************************
.SUBCKT ND2P I2 GND I1 O VCC
** N=6 EP=5 IP=0 FDC=0
.ENDS
***************************************
.SUBCKT MAO222 B1 A1 C1 GND VCC O
** N=7 EP=6 IP=0 FDC=0
.ENDS
***************************************
.SUBCKT FA1 S B VCC A CI GND CO
** N=8 EP=7 IP=0 FDC=0
.ENDS
***************************************
.SUBCKT OR2 I2 I1 VCC GND O
** N=6 EP=5 IP=0 FDC=0
.ENDS
***************************************
.SUBCKT AOI12HS B2 B1 VCC A1 GND O
** N=7 EP=6 IP=0 FDC=0
.ENDS
***************************************
.SUBCKT XOR2HS I1 I2 O VCC GND
** N=6 EP=5 IP=0 FDC=0
.ENDS
***************************************
.SUBCKT MOAI1S B1 B2 GND A1 A2 O VCC
** N=8 EP=7 IP=0 FDC=0
.ENDS
***************************************
.SUBCKT ND2S I1 O I2 VCC GND
** N=6 EP=5 IP=0 FDC=0
.ENDS
***************************************
.SUBCKT MOAI1H B1 B2 GND A1 O A2 VCC
** N=8 EP=7 IP=0 FDC=0
.ENDS
***************************************
.SUBCKT INV2 I O GND VCC
** N=5 EP=4 IP=0 FDC=0
.ENDS
***************************************
.SUBCKT BUF2 I O GND VCC
** N=5 EP=4 IP=0 FDC=0
.ENDS
***************************************
.SUBCKT AO22 O A2 A1 VCC B1 B2 GND
** N=8 EP=7 IP=0 FDC=0
.ENDS
***************************************
.SUBCKT INV3 I O GND VCC
** N=5 EP=4 IP=0 FDC=0
.ENDS
***************************************
.SUBCKT BUF6 I O GND VCC
** N=5 EP=4 IP=0 FDC=0
.ENDS
***************************************
.SUBCKT OAI22S B2 GND B1 A2 O A1 VCC
** N=8 EP=7 IP=0 FDC=0
.ENDS
***************************************
.SUBCKT FA1S CO VCC A B CI GND S
** N=8 EP=7 IP=0 FDC=0
.ENDS
***************************************
.SUBCKT INV4 I O GND VCC
** N=5 EP=4 IP=0 FDC=0
.ENDS
***************************************
.SUBCKT NR3HP O I3 I2 I1 GND VCC
** N=7 EP=6 IP=0 FDC=0
.ENDS
***************************************
.SUBCKT OR2T I2 I1 GND O VCC
** N=6 EP=5 IP=0 FDC=0
.ENDS
***************************************
.SUBCKT AOI13HS B3 O B2 B1 VCC A1 GND
** N=8 EP=7 IP=0 FDC=0
.ENDS
***************************************
.SUBCKT NR3 I1 VCC I2 I3 O GND
** N=7 EP=6 IP=0 FDC=0
.ENDS
***************************************
.SUBCKT OA12 B2 B1 A1 GND VCC O
** N=7 EP=6 IP=0 FDC=0
.ENDS
***************************************
.SUBCKT OAI22H B2 B1 GND A2 O A1 VCC
** N=8 EP=7 IP=0 FDC=0
.ENDS
***************************************
.SUBCKT OAI112H C2 C1 GND B1 O A1 VCC
** N=8 EP=7 IP=0 FDC=0
.ENDS
***************************************
.SUBCKT QDFFRBP D CK RB Q GND VCC
** N=7 EP=6 IP=0 FDC=0
.ENDS
***************************************
.SUBCKT QDFFRBS D CK RB VCC GND Q
** N=7 EP=6 IP=0 FDC=0
.ENDS
***************************************
.SUBCKT OAI222S C1 C2 GND B1 B2 VCC A1 O A2
** N=10 EP=9 IP=0 FDC=0
.ENDS
***************************************
.SUBCKT ICV_12 1 2 3 4 5 6 7 8 9 10 11
** N=11 EP=11 IP=14 FDC=0
X0 1 2 3 4 5 6 QDFFRBN $T=0 0 0 0 $X=0 $Y=-380
X1 7 8 9 4 5 10 QDFFRBN $T=11780 0 0 0 $X=11780 $Y=-380
.ENDS
***************************************
.SUBCKT BUF3 I VCC GND O
** N=5 EP=4 IP=0 FDC=0
.ENDS
***************************************
.SUBCKT INV6 I O GND VCC
** N=5 EP=4 IP=0 FDC=0
.ENDS
***************************************
.SUBCKT ICV_13 1 2 3 4 5 6 7 8 9
** N=9 EP=9 IP=12 FDC=0
X0 1 2 3 4 5 6 QDFFRBN $T=0 0 0 0 $X=0 $Y=-380
X1 7 4 8 5 INV1S $T=12400 0 0 0 $X=12400 $Y=-380
.ENDS
***************************************
.SUBCKT ICV_14 1 2 3 4 5 6 7 8 9 10 11
** N=11 EP=11 IP=14 FDC=0
X0 1 2 3 4 5 6 QDFFRBN $T=0 0 0 0 $X=0 $Y=-380
X1 7 8 9 4 5 10 QDFFRBN $T=12400 0 0 0 $X=12400 $Y=-380
.ENDS
***************************************
.SUBCKT BUF4CK I GND O VCC
** N=5 EP=4 IP=0 FDC=0
.ENDS
***************************************
.SUBCKT ICV_15 1 2 3 4 5 6 7 8 9
** N=9 EP=9 IP=12 FDC=0
X0 3 2 4 1 INV1S $T=0 0 0 0 $X=0 $Y=-380
X1 5 6 7 8 2 1 MXL2HS $T=-6200 0 0 0 $X=-6200 $Y=-380
.ENDS
***************************************
.SUBCKT INV8CK I O GND VCC
** N=5 EP=4 IP=0 FDC=0
.ENDS
***************************************
.SUBCKT BUF4 I O GND VCC
** N=5 EP=4 IP=0 FDC=0
.ENDS
***************************************
.SUBCKT INV4CK I O GND VCC
** N=5 EP=4 IP=0 FDC=0
.ENDS
***************************************
.SUBCKT ICV_16 1 2 3 4 5 6 7 8 9 10 11 12 13 14 15 16 17 18 19 20
+ 21 22 23 24 25 26 27 28 29 30 31 32 33 34 35 36 37 38 39 40
+ 41 42 43 44 45 46 47 48 49 50 51 52 53 54 55 56 57 58 59 60
+ 61 62 63 64 65 66 67 68 69 70 71 72 73 74 75 76 77 78 79 80
+ 81 82 83 84 85 86 87 88 89 90 91 92 93 94 95 96 97 98 99 100
+ 101 102 103 104 105 106 107 108 109 110 111 112 113 114 115 116 117 118 119 120
+ 121 122 123 124 125 126 127 128 129 130 131 132 133 134 135 136 137 138 139 140
+ 141 142 143 144 145 146 147 148 149 150 151 152 153 154 155 156 157 158 159 160
+ 161 162 163 164 165 166 167 168 169 170 171 172 173 174 175 176 177 178 179 180
+ 181 182 183 184 185 186 187 188 189 190 191 192 193 194 195 196 197 198 199 200
+ 201 202 203 204 205 206 207 208 209 210 211 212 213 214 215 216 217 218 219 220
+ 221 222 223 224 225 226 227 228 229 230 231 232 233 234 235 236 237 238 239 240
+ 241 242 243 244 245 246 247 248 249 250 251 252 253 254 255 256 257 258 259 260
+ 261 262 263 264 265 266 267 268 269 270 271 272 273 274 275 276 277 278 279 280
+ 281 282 293
** N=2314 EP=283 IP=13117 FDC=0
X0 1908 1 2 1963 BUF1S $T=789260 910680 1 180 $X=786780 $Y=910300
X1 1908 1 2 2007 BUF1S $T=792360 910680 0 0 $X=792360 $Y=910300
X2 280 1 2 281 BUF1S $T=1127160 900600 0 0 $X=1127160 $Y=900220
X3 282 1 2 280 BUF1S $T=1129640 1011480 1 180 $X=1127160 $Y=1011100
X4 4 2 1 3 BUF1 $T=224440 991320 1 180 $X=221960 $Y=990940
X5 5 2 1 323 BUF1 $T=374480 920760 1 0 $X=374480 $Y=915340
X6 303 2 1 5 BUF1 $T=377580 930840 0 180 $X=375100 $Y=925420
X7 11 2 1 308 BUF1 $T=378200 910680 0 180 $X=375720 $Y=905260
X8 324 2 1 303 BUF1 $T=378200 951000 1 180 $X=375720 $Y=950620
X9 329 2 1 318 BUF1 $T=381920 951000 1 180 $X=379440 $Y=950620
X10 324 2 1 335 BUF1 $T=380060 981240 0 0 $X=380060 $Y=980860
X11 335 2 1 356 BUF1 $T=386260 961080 1 0 $X=386260 $Y=955660
X12 329 2 1 305 BUF1 $T=386880 940920 0 0 $X=386880 $Y=940540
X13 323 2 1 378 BUF1 $T=395560 920760 1 0 $X=395560 $Y=915340
X14 370 2 1 329 BUF1 $T=399280 951000 0 0 $X=399280 $Y=950620
X15 323 2 1 21 BUF1 $T=401760 910680 0 0 $X=401760 $Y=910300
X16 343 2 1 372 BUF1 $T=405480 981240 1 0 $X=405480 $Y=975820
X17 370 2 1 373 BUF1 $T=412920 971160 0 180 $X=410440 $Y=965740
X18 373 2 1 358 BUF1 $T=413540 991320 0 180 $X=411060 $Y=985900
X19 373 2 1 440 BUF1 $T=414780 981240 1 0 $X=414780 $Y=975820
X20 452 2 1 370 BUF1 $T=420980 951000 1 180 $X=418500 $Y=950620
X21 23 2 1 428 BUF1 $T=420360 910680 1 0 $X=420360 $Y=905260
X22 361 2 1 460 BUF1 $T=420360 1001400 1 0 $X=420360 $Y=995980
X23 25 2 1 23 BUF1 $T=425940 900600 1 180 $X=423460 $Y=900220
X24 356 2 1 453 BUF1 $T=424700 951000 0 0 $X=424700 $Y=950620
X25 475 2 1 418 BUF1 $T=427800 1031640 0 180 $X=425320 $Y=1026220
X26 453 2 1 470 BUF1 $T=434000 930840 0 0 $X=434000 $Y=930460
X27 510 2 1 361 BUF1 $T=437100 1011480 0 180 $X=434620 $Y=1006060
X28 407 2 1 510 BUF1 $T=436480 1021560 0 0 $X=436480 $Y=1021180
X29 25 2 1 521 BUF1 $T=437100 900600 0 0 $X=437100 $Y=900220
X30 452 2 1 519 BUF1 $T=438340 951000 0 0 $X=438340 $Y=950620
X31 343 2 1 525 BUF1 $T=438340 971160 1 0 $X=438340 $Y=965740
X32 510 2 1 523 BUF1 $T=438340 1011480 1 0 $X=438340 $Y=1006060
X33 475 2 1 481 BUF1 $T=438960 1031640 1 0 $X=438960 $Y=1026220
X34 401 2 1 520 BUF1 $T=440200 1041720 1 0 $X=440200 $Y=1036300
X35 560 2 1 452 BUF1 $T=448260 940920 0 180 $X=445780 $Y=935500
X36 525 2 1 563 BUF1 $T=447020 961080 0 0 $X=447020 $Y=960700
X37 520 2 1 576 BUF1 $T=449500 1041720 1 0 $X=449500 $Y=1036300
X38 560 2 1 550 BUF1 $T=453840 920760 1 180 $X=451360 $Y=920380
X39 578 2 1 466 BUF1 $T=455700 1001400 0 180 $X=453220 $Y=995980
X40 520 2 1 601 BUF1 $T=455700 1061880 0 0 $X=455700 $Y=1061500
X41 591 2 1 475 BUF1 $T=458800 1011480 1 180 $X=456320 $Y=1011100
X42 37 2 1 34 BUF1 $T=459420 910680 0 180 $X=456940 $Y=905260
X43 525 2 1 622 BUF1 $T=463140 940920 0 0 $X=463140 $Y=940540
X44 591 2 1 578 BUF1 $T=463760 1011480 1 0 $X=463760 $Y=1006060
X45 591 2 1 605 BUF1 $T=463760 1031640 1 0 $X=463760 $Y=1026220
X46 661 2 1 597 BUF1 $T=474920 930840 1 180 $X=472440 $Y=930460
X47 661 2 1 37 BUF1 $T=473060 910680 1 0 $X=473060 $Y=905260
X48 622 2 1 672 BUF1 $T=477400 951000 0 180 $X=474920 $Y=945580
X49 675 2 1 591 BUF1 $T=474920 1011480 1 0 $X=474920 $Y=1006060
X50 605 2 1 686 BUF1 $T=476780 1041720 1 0 $X=476780 $Y=1036300
X51 696 2 1 643 BUF1 $T=482360 1041720 0 180 $X=479880 $Y=1036300
X52 661 2 1 704 BUF1 $T=481120 910680 1 0 $X=481120 $Y=905260
X53 622 2 1 661 BUF1 $T=481120 930840 1 0 $X=481120 $Y=925420
X54 694 2 1 585 BUF1 $T=484220 1001400 0 180 $X=481740 $Y=995980
X55 672 2 1 702 BUF1 $T=485460 961080 1 0 $X=485460 $Y=955660
X56 694 2 1 733 BUF1 $T=489180 1001400 1 0 $X=489180 $Y=995980
X57 696 2 1 750 BUF1 $T=490420 1041720 1 0 $X=490420 $Y=1036300
X58 696 2 1 746 BUF1 $T=491040 1011480 0 0 $X=491040 $Y=1011100
X59 601 2 1 42 BUF1 $T=491040 1061880 0 0 $X=491040 $Y=1061500
X60 753 2 1 715 BUF1 $T=496000 920760 1 180 $X=493520 $Y=920380
X61 715 2 1 650 BUF1 $T=496620 940920 0 180 $X=494140 $Y=935500
X62 704 2 1 47 BUF1 $T=500960 910680 0 180 $X=498480 $Y=905260
X63 53 2 1 675 BUF1 $T=512740 1001400 1 180 $X=510260 $Y=1001020
X64 53 2 1 753 BUF1 $T=513360 930840 0 180 $X=510880 $Y=925420
X65 53 2 1 560 BUF1 $T=512740 930840 0 0 $X=512740 $Y=930460
X66 560 2 1 840 BUF1 $T=515220 930840 1 0 $X=515220 $Y=925420
X67 900 2 1 797 BUF1 $T=526380 1031640 0 180 $X=523900 $Y=1026220
X68 59 2 1 856 BUF1 $T=532580 900600 1 180 $X=530100 $Y=900220
X69 912 2 1 900 BUF1 $T=533820 1031640 0 180 $X=531340 $Y=1026220
X70 367 2 1 891 BUF1 $T=533200 1071960 0 0 $X=533200 $Y=1071580
X71 917 2 1 59 BUF1 $T=536920 900600 1 180 $X=534440 $Y=900220
X72 874 2 1 931 BUF1 $T=535060 940920 1 0 $X=535060 $Y=935500
X73 840 2 1 924 BUF1 $T=545600 930840 0 0 $X=545600 $Y=930460
X74 862 2 1 1007 BUF1 $T=553660 1001400 0 0 $X=553660 $Y=1001020
X75 924 2 1 997 BUF1 $T=558000 930840 0 0 $X=558000 $Y=930460
X76 931 2 1 967 BUF1 $T=561100 940920 0 180 $X=558620 $Y=935500
X77 955 2 1 1013 BUF1 $T=562340 1041720 1 0 $X=562340 $Y=1036300
X78 1027 2 1 1061 BUF1 $T=566060 961080 0 0 $X=566060 $Y=960700
X79 1007 2 1 1077 BUF1 $T=568540 1021560 0 0 $X=568540 $Y=1021180
X80 1027 2 1 1084 BUF1 $T=573500 991320 0 0 $X=573500 $Y=990940
X81 1128 2 1 1042 BUF1 $T=586520 971160 1 180 $X=584040 $Y=970780
X82 1084 2 1 1142 BUF1 $T=585900 1011480 0 0 $X=585900 $Y=1011100
X83 1084 2 1 1149 BUF1 $T=586520 1001400 0 0 $X=586520 $Y=1001020
X84 1128 2 1 1152 BUF1 $T=589000 971160 1 0 $X=589000 $Y=965740
X85 1045 2 1 71 BUF1 $T=590860 900600 0 0 $X=590860 $Y=900220
X86 1152 2 1 1175 BUF1 $T=593960 971160 1 0 $X=593960 $Y=965740
X87 1069 2 1 1187 BUF1 $T=595200 1051800 1 0 $X=595200 $Y=1046380
X88 68 2 1 1193 BUF1 $T=597680 900600 0 0 $X=597680 $Y=900220
X89 1152 2 1 1222 BUF1 $T=602020 991320 1 0 $X=602020 $Y=985900
X90 1222 2 1 1162 BUF1 $T=608220 1001400 0 180 $X=605740 $Y=995980
X91 1175 2 1 1279 BUF1 $T=621860 961080 0 0 $X=621860 $Y=960700
X92 1222 2 1 1288 BUF1 $T=622480 1011480 1 0 $X=622480 $Y=1006060
X93 1300 2 1 1259 BUF1 $T=624960 910680 1 0 $X=624960 $Y=905260
X94 1237 2 1 1217 BUF1 $T=624960 981240 0 0 $X=624960 $Y=980860
X95 1187 2 1 1235 BUF1 $T=626820 1041720 1 0 $X=626820 $Y=1036300
X96 1217 2 1 1321 BUF1 $T=628680 961080 0 0 $X=628680 $Y=960700
X97 91 2 1 1213 BUF1 $T=631780 1071960 0 180 $X=629300 $Y=1066540
X98 1237 2 1 1296 BUF1 $T=629920 991320 1 0 $X=629920 $Y=985900
X99 1279 2 1 1298 BUF1 $T=631160 961080 0 0 $X=631160 $Y=960700
X100 1288 2 1 1188 BUF1 $T=634880 1011480 1 180 $X=632400 $Y=1011100
X101 1187 2 1 1340 BUF1 $T=633640 1051800 0 0 $X=633640 $Y=1051420
X102 94 2 1 1300 BUF1 $T=637980 900600 1 180 $X=635500 $Y=900220
X103 1296 2 1 1350 BUF1 $T=637360 991320 1 0 $X=637360 $Y=985900
X104 90 2 1 1361 BUF1 $T=638600 920760 1 0 $X=638600 $Y=915340
X105 1288 2 1 1372 BUF1 $T=641080 1021560 1 0 $X=641080 $Y=1016140
X106 1288 2 1 1351 BUF1 $T=642940 1011480 1 0 $X=642940 $Y=1006060
X107 1345 2 1 94 BUF1 $T=645420 920760 1 0 $X=645420 $Y=915340
X108 1322 2 1 97 BUF1 $T=647280 1061880 0 0 $X=647280 $Y=1061500
X109 1340 2 1 1384 BUF1 $T=647900 1051800 0 0 $X=647900 $Y=1051420
X110 1340 2 1 1417 BUF1 $T=651000 1061880 0 0 $X=651000 $Y=1061500
X111 97 2 1 1428 BUF1 $T=654100 1071960 1 0 $X=654100 $Y=1066540
X112 1344 2 1 1434 BUF1 $T=658440 1021560 0 0 $X=658440 $Y=1021180
X113 1428 2 1 1424 BUF1 $T=658440 1061880 1 0 $X=658440 $Y=1056460
X114 1420 2 1 1403 BUF1 $T=665260 971160 0 180 $X=662780 $Y=965740
X115 1424 2 1 1471 BUF1 $T=664640 1031640 1 0 $X=664640 $Y=1026220
X116 1420 2 1 1477 BUF1 $T=666500 971160 1 0 $X=666500 $Y=965740
X117 1434 2 1 1454 BUF1 $T=667740 1011480 1 0 $X=667740 $Y=1006060
X118 1420 2 1 1456 BUF1 $T=670840 940920 0 0 $X=670840 $Y=940540
X119 124 2 1 1441 BUF1 $T=682620 910680 0 180 $X=680140 $Y=905260
X120 1477 2 1 1515 BUF1 $T=681380 971160 0 0 $X=681380 $Y=970780
X121 1428 2 1 1534 BUF1 $T=683240 1061880 1 0 $X=683240 $Y=1056460
X122 1534 2 1 120 BUF1 $T=685720 1071960 1 0 $X=685720 $Y=1066540
X123 124 2 1 1567 BUF1 $T=687580 910680 0 0 $X=687580 $Y=910300
X124 1581 2 1 1486 BUF1 $T=693160 981240 1 180 $X=690680 $Y=980860
X125 1534 2 1 1556 BUF1 $T=690680 1051800 0 0 $X=690680 $Y=1051420
X126 1534 2 1 1553 BUF1 $T=691920 1041720 1 0 $X=691920 $Y=1036300
X127 1513 2 1 1581 BUF1 $T=696260 981240 0 0 $X=696260 $Y=980860
X128 1585 2 1 1617 BUF1 $T=703700 940920 0 0 $X=703700 $Y=940540
X129 1635 2 1 1602 BUF1 $T=704320 961080 1 0 $X=704320 $Y=955660
X130 1477 2 1 1635 BUF1 $T=708660 971160 1 180 $X=706180 $Y=970780
X131 1578 2 1 1625 BUF1 $T=706800 1061880 0 0 $X=706800 $Y=1061500
X132 1657 2 1 1503 BUF1 $T=709900 1001400 1 180 $X=707420 $Y=1001020
X133 1553 2 1 1649 BUF1 $T=708660 1031640 0 0 $X=708660 $Y=1031260
X134 1657 2 1 1621 BUF1 $T=712380 991320 0 180 $X=709900 $Y=985900
X135 1556 2 1 129 BUF1 $T=709900 1071960 1 0 $X=709900 $Y=1066540
X136 1625 2 1 130 BUF1 $T=711140 1061880 0 0 $X=711140 $Y=1061500
X137 1635 2 1 1657 BUF1 $T=717960 981240 1 180 $X=715480 $Y=980860
X138 1657 2 1 1702 BUF1 $T=716100 1001400 0 0 $X=716100 $Y=1001020
X139 1635 2 1 1693 BUF1 $T=717340 971160 1 0 $X=717340 $Y=965740
X140 1691 2 1 1624 BUF1 $T=719820 1041720 1 180 $X=717340 $Y=1041340
X141 1617 2 1 1603 BUF1 $T=720440 930840 1 180 $X=717960 $Y=930460
X142 1617 2 1 1703 BUF1 $T=718580 920760 0 0 $X=718580 $Y=920380
X143 1756 2 1 1738 BUF1 $T=732840 1061880 0 180 $X=730360 $Y=1056460
X144 1666 2 1 1685 BUF1 $T=732220 971160 0 0 $X=732220 $Y=970780
X145 1734 2 1 1691 BUF1 $T=734700 1041720 1 180 $X=732220 $Y=1041340
X146 1685 2 1 1732 BUF1 $T=732840 991320 1 0 $X=732840 $Y=985900
X147 1322 2 1 1782 BUF1 $T=738420 991320 1 0 $X=738420 $Y=985900
X148 1734 2 1 1744 BUF1 $T=738420 1031640 1 0 $X=738420 $Y=1026220
X149 1736 2 1 1759 BUF1 $T=741520 951000 1 180 $X=739040 $Y=950620
X150 1703 2 1 156 BUF1 $T=744000 900600 1 180 $X=741520 $Y=900220
X151 1703 2 1 1785 BUF1 $T=743380 910680 0 0 $X=743380 $Y=910300
X152 1703 2 1 157 BUF1 $T=744000 900600 0 0 $X=744000 $Y=900220
X153 157 2 1 160 BUF1 $T=747720 900600 0 0 $X=747720 $Y=900220
X154 1744 2 1 1806 BUF1 $T=748960 1021560 0 0 $X=748960 $Y=1021180
X155 1756 2 1 164 BUF1 $T=752060 1071960 1 0 $X=752060 $Y=1066540
X156 1782 2 1 1857 BUF1 $T=756400 1021560 1 0 $X=756400 $Y=1016140
X157 1857 2 1 1771 BUF1 $T=760120 1041720 0 180 $X=757640 $Y=1036300
X158 1808 2 1 1769 BUF1 $T=758880 930840 0 0 $X=758880 $Y=930460
X159 1871 2 1 1803 BUF1 $T=763840 961080 1 180 $X=761360 $Y=960700
X160 1808 2 1 1864 BUF1 $T=761980 920760 1 0 $X=761980 $Y=915340
X161 1865 2 1 1773 BUF1 $T=764460 1061880 1 180 $X=761980 $Y=1061500
X162 1857 2 1 1899 BUF1 $T=766940 1021560 1 0 $X=766940 $Y=1016140
X163 1867 2 1 1827 BUF1 $T=770040 981240 0 180 $X=767560 $Y=975820
X164 155 2 1 1915 BUF1 $T=768180 920760 1 0 $X=768180 $Y=915340
X165 1857 2 1 1913 BUF1 $T=768180 1041720 1 0 $X=768180 $Y=1036300
X166 1867 2 1 1893 BUF1 $T=771280 981240 1 0 $X=771280 $Y=975820
X167 1894 2 1 1871 BUF1 $T=776240 961080 0 180 $X=773760 $Y=955660
X168 1840 2 1 1923 BUF1 $T=778720 1051800 0 180 $X=776240 $Y=1046380
X169 1864 2 1 1894 BUF1 $T=783060 930840 0 180 $X=780580 $Y=925420
X170 1840 2 1 1925 BUF1 $T=780580 1031640 0 0 $X=780580 $Y=1031260
X171 1894 2 1 1950 BUF1 $T=783060 951000 0 0 $X=783060 $Y=950620
X172 1940 2 1 1933 BUF1 $T=784300 951000 1 0 $X=784300 $Y=945580
X173 1913 2 1 1944 BUF1 $T=786780 1051800 1 0 $X=786780 $Y=1046380
X174 1864 2 1 1968 BUF1 $T=791740 920760 0 0 $X=791740 $Y=920380
X175 1913 2 1 1865 BUF1 $T=794220 1051800 0 180 $X=791740 $Y=1046380
X176 1966 2 1 1985 BUF1 $T=795460 1051800 0 0 $X=795460 $Y=1051420
X177 1989 2 1 1980 BUF1 $T=797320 991320 0 0 $X=797320 $Y=990940
X178 1913 2 1 2035 BUF1 $T=798560 1051800 1 0 $X=798560 $Y=1046380
X179 2034 2 1 1989 BUF1 $T=806620 971160 0 180 $X=804140 $Y=965740
X180 1968 2 1 2034 BUF1 $T=805380 940920 0 0 $X=805380 $Y=940540
X181 2035 2 1 2037 BUF1 $T=806000 1031640 0 0 $X=806000 $Y=1031260
X182 2003 2 1 2078 BUF1 $T=809100 971160 0 0 $X=809100 $Y=970780
X183 2034 2 1 2082 BUF1 $T=810960 951000 0 0 $X=810960 $Y=950620
X184 2034 2 1 2088 BUF1 $T=811580 971160 1 0 $X=811580 $Y=965740
X185 2035 2 1 2054 BUF1 $T=812200 1021560 1 0 $X=812200 $Y=1016140
X186 195 2 1 2110 BUF1 $T=817780 910680 0 0 $X=817780 $Y=910300
X187 2121 2 1 2051 BUF1 $T=834520 940920 0 180 $X=832040 $Y=935500
X188 2110 2 1 2121 BUF1 $T=841960 940920 1 0 $X=841960 $Y=935500
X189 216 2 1 209 BUF1 $T=845060 910680 0 180 $X=842580 $Y=905260
X190 2110 2 1 2129 BUF1 $T=842580 930840 1 0 $X=842580 $Y=925420
X191 222 2 1 2136 BUF1 $T=850020 900600 0 0 $X=850020 $Y=900220
X192 2154 2 1 2139 BUF1 $T=859320 920760 1 180 $X=856840 $Y=920380
X193 2134 2 1 2158 BUF1 $T=859320 920760 0 0 $X=859320 $Y=920380
X194 2144 2 1 2163 BUF1 $T=866760 910680 0 0 $X=866760 $Y=910300
X195 2154 2 1 2174 BUF1 $T=870480 940920 1 0 $X=870480 $Y=935500
X196 2149 2 1 2194 BUF1 $T=884740 930840 0 0 $X=884740 $Y=930460
X197 8 6 5 2 1 294 QDFFRBN $T=366420 900600 1 180 $X=354640 $Y=900220
X198 304 6 5 2 1 295 QDFFRBN $T=367660 910680 1 180 $X=355880 $Y=910300
X199 306 6 5 2 1 296 QDFFRBN $T=368280 920760 1 180 $X=356500 $Y=920380
X200 298 6 303 2 1 313 QDFFRBN $T=362080 930840 0 0 $X=362080 $Y=930460
X201 312 6 303 2 1 297 QDFFRBN $T=373860 951000 1 180 $X=362080 $Y=950620
X202 299 6 303 2 1 314 QDFFRBN $T=362700 940920 0 0 $X=362700 $Y=940540
X203 309 6 323 2 1 331 QDFFRBN $T=370140 910680 0 0 $X=370140 $Y=910300
X204 10 6 323 2 1 15 QDFFRBN $T=370760 900600 0 0 $X=370760 $Y=900220
X205 328 6 5 2 1 310 QDFFRBN $T=382540 920760 1 180 $X=370760 $Y=920380
X206 315 6 324 2 1 334 QDFFRBN $T=371380 971160 0 0 $X=371380 $Y=970780
X207 316 6 303 2 1 339 QDFFRBN $T=372620 940920 1 0 $X=372620 $Y=935500
X208 317 6 303 2 1 337 QDFFRBN $T=372620 951000 1 0 $X=372620 $Y=945580
X209 319 6 324 2 1 338 QDFFRBN $T=372620 961080 0 0 $X=372620 $Y=960700
X210 321 6 335 2 1 348 QDFFRBN $T=375720 981240 1 0 $X=375720 $Y=975820
X211 352 340 343 2 1 332 QDFFRBN $T=394320 991320 1 180 $X=382540 $Y=990940
X212 344 6 335 2 1 379 QDFFRBN $T=385640 951000 0 0 $X=385640 $Y=950620
X213 345 6 356 2 1 382 QDFFRBN $T=386260 961080 0 0 $X=386260 $Y=960700
X214 346 6 372 2 1 380 QDFFRBN $T=386260 971160 0 0 $X=386260 $Y=970780
X215 347 6 372 2 1 381 QDFFRBN $T=386260 981240 0 0 $X=386260 $Y=980860
X216 351 6 323 2 1 375 QDFFRBN $T=387500 910680 0 0 $X=387500 $Y=910300
X217 357 6 378 2 1 354 QDFFRBN $T=389360 920760 0 0 $X=389360 $Y=920380
X218 355 6 378 2 1 391 QDFFRBN $T=389360 930840 1 0 $X=389360 $Y=925420
X219 359 6 378 2 1 383 QDFFRBN $T=389980 940920 1 0 $X=389980 $Y=935500
X220 342 6 323 2 1 395 QDFFRBN $T=390600 900600 0 0 $X=390600 $Y=900220
X221 368 340 343 2 1 408 QDFFRBN $T=394940 991320 0 0 $X=394940 $Y=990940
X222 384 6 372 2 1 411 QDFFRBN $T=399280 971160 0 0 $X=399280 $Y=970780
X223 387 6 356 2 1 416 QDFFRBN $T=399900 951000 1 0 $X=399900 $Y=945580
X224 402 6 356 2 1 385 QDFFRBN $T=411680 961080 0 180 $X=399900 $Y=955660
X225 422 6 21 2 1 389 QDFFRBN $T=413540 910680 0 180 $X=401760 $Y=905260
X226 420 6 378 2 1 392 QDFFRBN $T=413540 920760 0 180 $X=401760 $Y=915340
X227 423 6 378 2 1 393 QDFFRBN $T=413540 920760 1 180 $X=401760 $Y=920380
X228 396 340 407 2 1 427 QDFFRBN $T=401760 1031640 0 0 $X=401760 $Y=1031260
X229 410 6 378 2 1 397 QDFFRBN $T=414160 940920 0 180 $X=402380 $Y=935500
X230 415 340 407 2 1 390 QDFFRBN $T=414160 1021560 0 180 $X=402380 $Y=1016140
X231 399 340 407 2 1 433 QDFFRBN $T=403000 1031640 1 0 $X=403000 $Y=1026220
X232 400 6 21 2 1 437 QDFFRBN $T=404240 900600 0 0 $X=404240 $Y=900220
X233 431 6 361 2 1 405 QDFFRBN $T=418500 1001400 0 180 $X=406720 $Y=995980
X234 412 340 361 2 1 450 QDFFRBN $T=407960 1011480 1 0 $X=407960 $Y=1006060
X235 429 6 356 2 1 463 QDFFRBN $T=413540 951000 1 0 $X=413540 $Y=945580
X236 441 340 407 2 1 479 QDFFRBN $T=416020 1021560 1 0 $X=416020 $Y=1016140
X237 447 6 470 2 1 459 QDFFRBN $T=417260 930840 1 0 $X=417260 $Y=925420
X238 448 6 460 2 1 472 QDFFRBN $T=417880 991320 1 0 $X=417880 $Y=985900
X239 430 6 460 2 1 480 QDFFRBN $T=418500 971160 0 0 $X=418500 $Y=970780
X240 434 6 453 2 1 492 QDFFRBN $T=419120 961080 1 0 $X=419120 $Y=955660
X241 455 6 470 2 1 486 QDFFRBN $T=419740 920760 1 0 $X=419740 $Y=915340
X242 456 340 401 2 1 496 QDFFRBN $T=419740 1031640 0 0 $X=419740 $Y=1031260
X243 474 340 361 2 1 457 QDFFRBN $T=432760 1011480 0 180 $X=420980 $Y=1006060
X244 442 340 401 2 1 464 QDFFRBN $T=420980 1041720 1 0 $X=420980 $Y=1036300
X245 508 28 470 2 1 467 QDFFRBN $T=436480 910680 0 180 $X=424700 $Y=905260
X246 478 28 453 2 1 516 QDFFRBN $T=426560 951000 1 0 $X=426560 $Y=945580
X247 469 340 460 2 1 526 QDFFRBN $T=429040 1001400 1 0 $X=429040 $Y=995980
X248 487 340 510 2 1 522 QDFFRBN $T=429040 1021560 1 0 $X=429040 $Y=1016140
X249 527 28 470 2 1 489 QDFFRBN $T=442060 930840 0 180 $X=430280 $Y=925420
X250 498 340 460 2 1 491 QDFFRBN $T=430900 991320 0 0 $X=430900 $Y=990940
X251 471 340 520 2 1 539 QDFFRBN $T=430900 1051800 1 0 $X=430900 $Y=1046380
X252 502 28 525 2 1 517 QDFFRBN $T=432140 961080 0 0 $X=432140 $Y=960700
X253 504 340 401 2 1 545 QDFFRBN $T=432760 1031640 0 0 $X=432760 $Y=1031260
X254 537 28 470 2 1 501 QDFFRBN $T=445160 920760 0 180 $X=433380 $Y=915340
X255 533 340 510 2 1 579 QDFFRBN $T=442060 1021560 1 0 $X=442060 $Y=1016140
X256 538 28 563 2 1 561 QDFFRBN $T=442680 961080 1 0 $X=442680 $Y=955660