$ Spice netlist generated by v2lvs
$ v2022.3_33.19    Tue Sep 6 12:09:54 PDT 2022
.INCLUDE "core.spi" 
.INCLUDE "umc18_io_lvs.spi" 
*.BUSDELIMITER [ 

.SUBCKT Adder_relu i_data_0[24] i_data_0[23] i_data_0[22] i_data_0[21] 
+ i_data_0[20] i_data_0[19] i_data_0[18] i_data_0[17] i_data_0[16] i_data_0[15] 
+ i_data_0[14] i_data_0[13] i_data_0[12] i_data_0[11] i_data_0[10] i_data_0[9] 
+ i_data_0[8] i_data_0[7] i_data_0[6] i_data_0[5] i_data_0[4] i_data_0[3] 
+ i_data_0[2] i_data_0[1] i_data_0[0] i_data_1[24] i_data_1[23] i_data_1[22] 
+ i_data_1[21] i_data_1[20] i_data_1[19] i_data_1[18] i_data_1[17] i_data_1[16] 
+ i_data_1[15] i_data_1[14] i_data_1[13] i_data_1[12] i_data_1[11] i_data_1[10] 
+ i_data_1[9] i_data_1[8] i_data_1[7] i_data_1[6] i_data_1[5] i_data_1[4] 
+ i_data_1[3] i_data_1[2] i_data_1[1] i_data_1[0] i_data_2[24] i_data_2[23] 
+ i_data_2[22] i_data_2[21] i_data_2[20] i_data_2[19] i_data_2[18] i_data_2[17] 
+ i_data_2[16] i_data_2[15] i_data_2[14] i_data_2[13] i_data_2[12] i_data_2[11] 
+ i_data_2[10] i_data_2[9] i_data_2[8] i_data_2[7] i_data_2[6] i_data_2[5] 
+ i_data_2[4] i_data_2[3] i_data_2[2] i_data_2[1] i_data_2[0] o_data[20] 
+ o_data[19] o_data[18] o_data[17] o_data[16] o_data[15] o_data[14] o_data[13] 
+ o_data[12] o_data[11] o_data[10] o_data[9] o_data[8] o_data[7] o_data[6] 
+ o_data[5] o_data[4] o_data[3] o_data[2] o_data[1] o_data[0] 
XFE_OFC2038_n508 INV2 $PINS O=FE_OFN1423_FE_DBTN50_n508 I=n508 
XFE_RC_52_0 MOAI1 $PINS O=o_data[5] A1=FE_OFN1415_n25 A2=n349 B1=n16 B2=n348 
XFE_OFC1796_n508 INV2 $PINS O=FE_OFN1691_n508 I=n508 
XFE_OFC1794_n508 INV1S $PINS O=FE_OFN1422_FE_DBTN50_n508 I=n508 
XFE_OFC1768_pconv_2_r_23 INV1S $PINS O=n137 I=i_data_2[24] 
XFE_OFC1713_pconv_0_r_23 INV1S $PINS O=n136 I=i_data_0[24] 
XFE_OFC1675_n25 BUF2 $PINS O=FE_OFN1415_n25 I=n25 
XFE_OFC1416_n432 BUF1S $PINS O=FE_OFN1416_n432 I=n432 
XFE_OFC1127_FE_DBTN51_n212 BUF1S $PINS O=FE_OFN1127_FE_DBTN51_n212 
+ I=FE_DBTN51_n212 
XFE_OFC1126_FE_DBTN52_n262 BUF1CK $PINS O=FE_OFN1126_FE_DBTN52_n262 
+ I=FE_DBTN52_n262 
XFE_OFC1125_FE_DBTN53_n372 BUF1 $PINS O=FE_OFN1125_FE_DBTN53_n372 
+ I=FE_DBTN53_n372 
XFE_DBTC53_n372 INV1S $PINS O=FE_DBTN53_n372 I=n372 
XFE_DBTC52_n262 INV2CK $PINS O=FE_DBTN52_n262 I=n262 
XFE_DBTC51_n212 INV1S $PINS O=FE_DBTN51_n212 I=n212 
XU3 NR2 $PINS O=n17 I1=n260 I2=FE_DBTN52_n262 
XU5 INV1S $PINS O=n432 I=n276 
XU6 INV1S $PINS O=n270 I=n269 
XU7 XOR2HS $PINS O=n259 I1=n49 I2=n90 
XU8 ND2 $PINS O=n276 I1=n155 I2=n154 
XU9 NR2 $PINS O=n135 I1=n133 I2=n475 
XU10 NR2 $PINS O=n221 I1=n143 I2=n144 
XU11 INV1S $PINS O=n70 I=n69 
XU12 INV1S $PINS O=n6 I=n77 
XU13 INV1S $PINS O=n202 I=i_data_1[24] 
XU14 NR2 $PINS O=n412 I1=n116 I2=n117 
XU15 NR2 $PINS O=n50 I1=n45 I2=n46 
XU16 NR2 $PINS O=n44 I1=n74 I2=n77 
XU18 FA1S $PINS S=n184 CO=n186 A=i_data_1[18] B=i_data_2[18] CI=i_data_0[18] 
XU19 OAI12HS $PINS O=n441 A1=n485 B1=n484 B2=n488 
XU20 ND2 $PINS O=n488 I1=n123 I2=n122 
XU21 OAI12H $PINS O=n98 A1=n266 B1=n269 B2=n265 
XU22 FA1S $PINS S=n163 CO=n166 A=i_data_1[12] B=i_data_2[12] CI=i_data_0[12] 
XU23 AOI12HS $PINS O=n269 A1=n95 B1=n294 B2=n295 
XU24 OR2 $PINS O=n294 I1=n151 I2=n94 
XU25 FA1S $PINS S=n171 CO=n172 A=i_data_1[15] B=i_data_2[15] CI=i_data_0[15] 
XU26 FA1S $PINS S=n173 CO=n181 A=i_data_1[16] B=i_data_2[16] CI=i_data_0[16] 
XU27 ND2 $PINS O=n402 I1=n113 I2=n112 
XU28 AOI12HP $PINS O=n281 A1=n98 B1=n297 B2=n99 
XU29 INV2 $PINS O=n297 I=n90 
XU30 FA1S $PINS S=n161 CO=n162 A=i_data_1[11] B=i_data_2[11] CI=i_data_0[11] 
XU31 FA1 $PINS S=n38 CO=n39 A=i_data_1[2] B=i_data_2[2] CI=i_data_0[2] 
XU32 NR2 $PINS O=n454 I1=n193 I2=n499 
XU34 INV1S $PINS O=n146 I=n240 
XU35 OA12 $PINS O=n25 A1=n145 B1=n148 B2=n146 
XU36 NR2 $PINS O=n507 I1=FE_OFN1126_FE_DBTN52_n262 I2=n260 
XU37 XOR2HS $PINS O=n1 I1=n496 I2=n495 
XU38 XOR2HS $PINS O=n2 I1=n391 I2=n390 
XU39 XOR2HS $PINS O=n3 I1=n450 I2=n449 
XU40 XOR2HS $PINS O=n4 I1=n149 I2=n247 
XU41 XNR2HS $PINS O=n5 I1=n249 I2=n248 
XU44 ND2S $PINS O=n211 I1=n197 I2=n196 
XU46 ND2S $PINS O=n349 I1=n338 I2=FE_OFN1126_FE_DBTN52_n262 
XU47 ND2S $PINS O=n330 I1=n325 I2=FE_OFN1126_FE_DBTN52_n262 
XU48 ND2S $PINS O=n370 I1=n360 I2=FE_OFN1126_FE_DBTN52_n262 
XU49 ND2S $PINS O=n315 I1=FE_DBTN52_n262 I2=n300 
XU50 ND3 $PINS O=n89 I1=n20 I2=n79 I3=n19 
XU51 ND2S $PINS O=n408 I1=n422 I2=n420 
XU52 ND2S $PINS O=n431 I1=n428 I2=n422 
XU53 ND2S $PINS O=n383 I1=n422 I2=n381 
XU54 ND2S $PINS O=n229 I1=n223 I2=n222 
XU55 ND2S $PINS O=n467 I1=n461 I2=n464 
XU56 ND2S $PINS O=n391 I1=n387 I2=n442 
XU57 ND2S $PINS O=n337 I1=n333 I2=n332 
XU58 ND2S $PINS O=n477 I1=n490 I2=n488 
XU59 ND2S $PINS O=n469 I1=n460 I2=n459 
XU60 ND2S $PINS O=n496 I1=n486 I2=n485 
XU61 ND2S $PINS O=n358 I1=n352 I2=n351 
XU62 OR2 $PINS O=n67 I1=n66 I2=n65 
XU63 ND2S $PINS O=n249 I1=n244 I2=n243 
XU64 ND2S $PINS O=n273 I1=n267 I2=n266 
XU65 ND2S $PINS O=n257 I1=n251 I2=n250 
XU66 ND2S $PINS O=n450 I1=n438 I2=n437 
XU67 ND2S $PINS O=n282 I1=n355 I2=n353 
XU68 ND2S $PINS O=n416 I1=n464 I2=n462 
XU69 ND2S $PINS O=n373 I1=n371 I2=n402 
XU70 ND2S $PINS O=n405 I1=n401 I2=n400 
XU71 ND2S $PINS O=n324 I1=n318 I2=n317 
XU72 ND2S $PINS O=n345 I1=n363 I2=n362 
XU73 ND2S $PINS O=n385 I1=n376 I2=n375 
XU74 ND2S $PINS O=n328 I1=n381 I2=n379 
XU75 ND2S $PINS O=n299 I1=n294 I2=n293 
XU76 ND2S $PINS O=n368 I1=n362 I2=n361 
XU77 ND2S $PINS O=n456 I1=n452 I2=n451 
XU78 ND2S $PINS O=n78 I1=n76 I2=n75 
XU79 ND2S $PINS O=n51 I1=n85 I2=n83 
XU80 ND2S $PINS O=n410 I1=n406 I2=n424 
XU81 ND2S $PINS O=n505 I1=n498 I2=n497 
XU82 ND2S $PINS O=n219 I1=n180 I2=n211 
XU83 ND2S $PINS O=n149 I1=n246 I2=n147 
XU84 ND2S $PINS O=n471 I1=n480 I2=n470 
XU85 ND2S $PINS O=n482 I1=n29 I2=n478 
XU86 ND2S $PINS O=n397 I1=n28 I2=n392 
XU87 ND2S $PINS O=n60 I1=n59 I2=n58 
XU88 OR2 $PINS O=n180 I1=n196 I2=n197 
XU92 NR2P $PINS O=n508 I1=n262 I2=FE_OFN1415_n25 
XU95 NR2 $PINS O=n16 I1=n260 I2=FE_DBTN52_n262 
XU96 OR2 $PINS O=n18 I1=n202 I2=n203 
XU97 XOR2HS $PINS O=n19 I1=n78 I2=n6 
XU98 XOR2HS $PINS O=n20 I1=n51 I2=n26 
XU99 XNR2HS $PINS O=n21 I1=n373 I2=FE_DBTN53_n372 
XU100 XOR2HS $PINS O=n22 I1=n416 I2=n415 
XU101 XOR2HS $PINS O=n23 I1=n469 I2=n468 
XU102 XNR2HS $PINS O=n24 I1=n229 I2=n228 
XU103 AO12P $PINS O=n26 A1=n43 B1=n44 B2=n69 
XU104 AN2 $PINS O=n27 I1=n203 I2=n202 
XU105 OR2 $PINS O=n28 I1=n188 I2=n189 
XU106 OR2 $PINS O=n29 I1=n183 I2=n184 
XU107 XOR2HS $PINS O=n30 I1=n477 I2=n476 
XU108 XOR2HS $PINS O=n31 I1=n405 I2=n404 
XU109 XNR2HS $PINS O=n32 I1=n242 I2=n241 
XU110 OAI12HS $PINS O=n306 A1=n81 B1=n80 B2=n83 
XU111 OAI12HS $PINS O=n134 A1=n132 B1=n474 B2=n133 
XU112 NR3 $PINS O=n79 I1=n73 I2=n67 I3=n72 
XU113 NR2 $PINS O=n145 I1=n242 I2=n239 
XU115 NR2 $PINS O=n308 I1=n91 I2=n93 
XU116 INV1S $PINS O=n33 I=n308 
XU117 ND2 $PINS O=n307 I1=n93 I2=n91 
XU118 ND2 $PINS O=n49 I1=n33 I2=n307 
XU119 NR2 $PINS O=n74 I1=n41 I2=n42 
XU120 FA1 $PINS S=n40 CO=n41 A=i_data_1[3] B=i_data_2[3] CI=i_data_0[3] 
XU121 NR2 $PINS O=n77 I1=n39 I2=n40 
XU122 NR2 $PINS O=n52 I1=n37 I2=n38 
XU123 HA1 $PINS S=n35 C=n37 A=i_data_1[1] B=i_data_0[1] 
XU124 OR2 $PINS O=n62 I1=i_data_2[1] I2=n35 
XU125 NR2 $PINS O=n57 I1=i_data_1[0] I2=i_data_0[0] 
XU126 INV1S $PINS O=n34 I=i_data_2[0] 
XU127 ND2 $PINS O=n58 I1=i_data_0[0] I2=i_data_1[0] 
XU128 OAI12HS $PINS O=n64 A1=n58 B1=n57 B2=n34 
XU129 ND2 $PINS O=n61 I1=n35 I2=i_data_2[1] 
XU130 INV1S $PINS O=n36 I=n61 
XU131 AOI12HS $PINS O=n56 A1=n36 B1=n62 B2=n64 
XU132 ND2 $PINS O=n53 I1=n38 I2=n37 
XU133 OAI12HS $PINS O=n69 A1=n53 B1=n52 B2=n56 
XU134 ND2 $PINS O=n68 I1=n40 I2=n39 
XU135 ND2 $PINS O=n75 I1=n42 I2=n41 
XU136 OAI12HS $PINS O=n43 A1=n75 B1=n74 B2=n68 
XU137 FA1 $PINS S=n48 CO=n91 A=i_data_1[6] B=i_data_2[6] CI=i_data_0[6] 
XU138 NR2 $PINS O=n80 I1=n47 I2=n48 
XU139 FA1 $PINS S=n42 CO=n45 A=i_data_1[4] B=i_data_2[4] CI=i_data_0[4] 
XU140 FA1S $PINS S=n46 CO=n47 A=i_data_1[5] B=i_data_2[5] CI=i_data_0[5] 
XU141 NR2 $PINS O=n304 I1=n80 I2=n50 
XU142 ND2 $PINS O=n83 I1=n46 I2=n45 
XU143 ND2 $PINS O=n81 I1=n48 I2=n47 
XU144 AOI12HP $PINS O=n90 A1=n306 B1=n26 B2=n304 
XU145 INV1S $PINS O=n85 I=n50 
XU146 INV1S $PINS O=n54 I=n52 
XU147 ND2 $PINS O=n55 I1=n54 I2=n53 
XU148 XOR2HS $PINS O=n73 I1=n56 I2=n55 
XU149 INV1S $PINS O=n59 I=n57 
XU150 XNR2HS $PINS O=n66 I1=i_data_2[0] I2=n60 
XU151 ND2 $PINS O=n63 I1=n62 I2=n61 
XU152 XNR2HS $PINS O=n65 I1=n64 I2=n63 
XU153 ND2 $PINS O=n71 I1=n6 I2=n68 
XU154 XOR2HS $PINS O=n72 I1=n71 I2=n70 
XU155 INV1S $PINS O=n76 I=n74 
XU156 INV1S $PINS O=n82 I=n80 
XU157 ND2 $PINS O=n87 I1=n82 I2=n81 
XU158 INV1S $PINS O=n84 I=n83 
XU159 AOI12HS $PINS O=n86 A1=n84 B1=n26 B2=n85 
XU160 XOR2HS $PINS O=n88 I1=n87 I2=n86 
XU161 OAI12H $PINS O=n262 A1=n88 B1=n259 B2=n89 
XU162 FA1S $PINS S=n93 CO=n150 A=i_data_1[7] B=i_data_2[7] CI=i_data_0[7] 
XU163 INV1S $PINS O=n92 I=n91 
XU164 OR2 $PINS O=n296 I1=n92 I2=n93 
XU165 ND2 $PINS O=n268 I1=n294 I2=n296 
XU166 HA1 $PINS S=n94 C=n96 A=n150 B=n91 
XU167 FA1S $PINS S=n151 CO=n156 A=i_data_1[8] B=i_data_2[8] CI=i_data_0[8] 
XU168 NR2 $PINS O=n265 I1=n96 I2=n97 
XU169 NR2P $PINS O=n99 I1=n268 I2=n265 
XU170 AN2 $PINS O=n295 I1=n93 I2=n92 
XU171 ND2 $PINS O=n293 I1=n94 I2=n151 
XU172 INV1S $PINS O=n95 I=n293 
XU173 ND2 $PINS O=n266 I1=n97 I2=n96 
XU174 FA1S $PINS S=n157 CO=n158 A=i_data_1[9] B=i_data_2[9] CI=i_data_0[9] 
XU175 FA1S $PINS S=n159 CO=n160 A=i_data_1[10] B=i_data_2[10] CI=i_data_0[10] 
XU176 NR2 $PINS O=n350 I1=n102 I2=n103 
XU177 HA1 $PINS S=n97 C=n100 A=n156 B=n157 
XU178 HA1 $PINS S=n101 C=n102 A=n158 B=n159 
XU179 NR2 $PINS O=n280 I1=n100 I2=n101 
XU180 NR2 $PINS O=n335 I1=n350 I2=n280 
XU181 NR2 $PINS O=n316 I1=n106 I2=n107 
XU182 HA1 $PINS S=n103 C=n104 A=n160 B=n161 
XU183 HA1 $PINS S=n105 C=n106 A=n162 B=n163 
XU184 NR2 $PINS O=n331 I1=n104 I2=n105 
XU185 NR2 $PINS O=n109 I1=n316 I2=n331 
XU186 ND2 $PINS O=n111 I1=n335 I2=n109 
XU187 ND2 $PINS O=n353 I1=n101 I2=n100 
XU188 ND2 $PINS O=n351 I1=n103 I2=n102 
XU189 OAI12HS $PINS O=n334 A1=n351 B1=n350 B2=n353 
XU190 ND2 $PINS O=n332 I1=n105 I2=n104 
XU191 ND2 $PINS O=n317 I1=n107 I2=n106 
XU192 OAI12HS $PINS O=n108 A1=n317 B1=n316 B2=n332 
XU193 AOI12HS $PINS O=n110 A1=n108 B1=n109 B2=n334 
XU194 OAI12H $PINS O=n372 A1=n110 B1=n281 B2=n111 
XU195 NR2 $PINS O=n484 I1=n124 I2=n125 
XU196 FA1S $PINS S=n182 CO=n183 A=i_data_1[17] B=i_data_2[17] CI=i_data_0[17] 
XU197 HA1 $PINS S=n123 C=n124 A=n183 B=n184 
XU198 NR2 $PINS O=n473 I1=n122 I2=n123 
XU199 NR2 $PINS O=n439 I1=n484 I2=n473 
XU200 FA1S $PINS S=n187 CO=n188 A=i_data_1[19] B=i_data_2[19] CI=i_data_0[19] 
XU201 FA1S $PINS S=n189 CO=n194 A=i_data_1[20] B=i_data_2[20] CI=i_data_0[20] 
XU202 NR2 $PINS O=n436 I1=n128 I2=n129 
XU203 HA1 $PINS S=n125 C=n126 A=n186 B=n187 
XU204 HA1 $PINS S=n127 C=n128 A=n188 B=n189 
XU205 NR2 $PINS O=n443 I1=n126 I2=n127 
XU206 NR2 $PINS O=n131 I1=n436 I2=n443 
XU207 ND2 $PINS O=n133 I1=n439 I2=n131 
XU208 FA1S $PINS S=n167 CO=n168 A=i_data_1[13] B=i_data_2[13] CI=i_data_0[13] 
XU209 FA1S $PINS S=n169 CO=n170 A=i_data_1[14] B=i_data_2[14] CI=i_data_0[14] 
XU210 NR2 $PINS O=n399 I1=n114 I2=n115 
XU211 HA1 $PINS S=n107 C=n112 A=n166 B=n167 
XU212 HA1 $PINS S=n113 C=n114 A=n168 B=n169 
XU213 NR2 $PINS O=n403 I1=n112 I2=n113 
XU214 NR2 $PINS O=n461 I1=n399 I2=n403 
XU215 HA1 $PINS S=n119 C=n122 A=n181 B=n182 
XU216 NR2 $PINS O=n458 I1=n118 I2=n119 
XU217 HA1 $PINS S=n115 C=n116 A=n170 B=n171 
XU218 HA1 $PINS S=n117 C=n118 A=n172 B=n173 
XU219 NR2 $PINS O=n121 I1=n458 I2=n412 
XU220 ND2 $PINS O=n475 I1=n461 I2=n121 
XU221 ND2 $PINS O=n400 I1=n115 I2=n114 
XU222 OAI12H $PINS O=n465 A1=n400 B1=n399 B2=n402 
XU223 ND2 $PINS O=n462 I1=n117 I2=n116 
XU224 ND2 $PINS O=n459 I1=n119 I2=n118 
XU225 OAI12HS $PINS O=n120 A1=n459 B1=n458 B2=n462 
XU226 AOI12HS $PINS O=n474 A1=n120 B1=n121 B2=n465 
XU227 ND2 $PINS O=n485 I1=n125 I2=n124 
XU228 ND2 $PINS O=n442 I1=n127 I2=n126 
XU229 ND2 $PINS O=n437 I1=n129 I2=n128 
XU230 OAI12HS $PINS O=n130 A1=n437 B1=n436 B2=n442 
XU231 AOI12HS $PINS O=n132 A1=n130 B1=n131 B2=n441 
XU232 AOI12HS $PINS O=n148 A1=n134 B1=n372 B2=n135 
XU235 FA1S $PINS S=n201 CO=n203 A=i_data_1[23] B=n137 CI=n136 
XU236 HA1 $PINS S=n129 C=n138 A=n194 B=n195 
XU237 FA1S $PINS S=n195 CO=n196 A=i_data_1[21] B=i_data_2[21] CI=i_data_0[21] 
XU238 FA1S $PINS S=n197 CO=n200 A=i_data_1[22] B=i_data_2[22] CI=i_data_0[22] 
XU239 OR2 $PINS O=n246 I1=n138 I2=n139 
XU240 HA1 $PINS S=n139 C=n140 A=n196 B=n197 
XU241 HA1 $PINS S=n141 C=n144 A=n200 B=n201 
XU242 OR2 $PINS O=n244 I1=n140 I2=n141 
XU243 ND2 $PINS O=n224 I1=n246 I2=n244 
XU244 NR2 $PINS O=n240 I1=n221 I2=n224 
XU245 HA1 $PINS S=n143 C=n242 A=n202 B=n203 
XU246 ND2 $PINS O=n147 I1=n139 I2=n138 
XU247 INV1S $PINS O=n245 I=n147 
XU248 ND2 $PINS O=n243 I1=n141 I2=n140 
XU249 INV1S $PINS O=n142 I=n243 
XU250 AOI12HS $PINS O=n225 A1=n142 B1=n244 B2=n245 
XU251 ND2 $PINS O=n222 I1=n144 I2=n143 
XU252 OAI12HS $PINS O=n239 A1=n222 B1=n225 B2=n221 
XU253 INV1S $PINS O=n247 I=n148 
XU254 NR2 $PINS O=n301 I1=n150 I2=n151 
XU255 NR2 $PINS O=n153 I1=n301 I2=n308 
XU256 ND2 $PINS O=n302 I1=n151 I2=n150 
XU257 OAI12HS $PINS O=n152 A1=n302 B1=n301 B2=n307 
XU258 AOI12HS $PINS O=n155 A1=n152 B1=n153 B2=n306 
XU259 ND2 $PINS O=n154 I1=n304 I2=n153 
XU260 NR2 $PINS O=n374 I1=n168 I2=n169 
XU261 NR2 $PINS O=n326 I1=n166 I2=n167 
XU262 NR2 $PINS O=n420 I1=n374 I2=n326 
XU263 NR2 $PINS O=n417 I1=n172 I2=n173 
XU264 NR2 $PINS O=n425 I1=n170 I2=n171 
XU265 NR2 $PINS O=n175 I1=n417 I2=n425 
XU266 ND2 $PINS O=n177 I1=n420 I2=n175 
XU267 NR2 $PINS O=n284 I1=n158 I2=n159 
XU268 NR2 $PINS O=n288 I1=n156 I2=n157 
XU269 NR2 $PINS O=n363 I1=n284 I2=n288 
XU270 NR2 $PINS O=n339 I1=n162 I2=n163 
XU271 NR2 $PINS O=n342 I1=n160 I2=n161 
XU272 NR2 $PINS O=n165 I1=n339 I2=n342 
XU273 ND2 $PINS O=n377 I1=n363 I2=n165 
XU274 NR2 $PINS O=n179 I1=n177 I2=n377 
XU275 ND2 $PINS O=n287 I1=n157 I2=n156 
XU276 ND2 $PINS O=n285 I1=n159 I2=n158 
XU277 OAI12HS $PINS O=n364 A1=n285 B1=n284 B2=n287 
XU278 ND2 $PINS O=n361 I1=n161 I2=n160 
XU279 ND2 $PINS O=n340 I1=n163 I2=n162 
XU280 OAI12HS $PINS O=n164 A1=n340 B1=n339 B2=n361 
XU281 AOI12HS $PINS O=n378 A1=n164 B1=n165 B2=n364 
XU282 ND2 $PINS O=n379 I1=n167 I2=n166 
XU283 ND2 $PINS O=n375 I1=n169 I2=n168 
XU284 OAI12HS $PINS O=n423 A1=n375 B1=n374 B2=n379 
XU285 ND2 $PINS O=n424 I1=n171 I2=n170 
XU286 ND2 $PINS O=n418 I1=n173 I2=n172 
XU287 OAI12HS $PINS O=n174 A1=n418 B1=n417 B2=n424 
XU288 AOI12HS $PINS O=n176 A1=n174 B1=n175 B2=n423 
XU289 OAI12HS $PINS O=n178 A1=n176 B1=n378 B2=n177 
XU290 AOI12HS $PINS O=n212 A1=n178 B1=n276 B2=n179 
XU291 NR2 $PINS O=n393 I1=n186 I2=n187 
XU292 INV1S $PINS O=n498 I=n393 
XU293 ND2 $PINS O=n193 I1=n498 I2=n28 
XU294 OR2 $PINS O=n480 I1=n181 I2=n182 
XU295 ND2 $PINS O=n499 I1=n480 I2=n29 
XU296 NR2 $PINS O=n234 I1=n200 I2=n201 
XU297 INV1S $PINS O=n251 I=n234 
XU298 ND2 $PINS O=n206 I1=n251 I2=n18 
XU299 NR2 $PINS O=n214 I1=n194 I2=n195 
XU300 INV1S $PINS O=n452 I=n214 
XU301 ND2 $PINS O=n230 I1=n452 I2=n180 
XU302 NR2 $PINS O=n208 I1=n206 I2=n230 
XU303 ND2 $PINS O=n210 I1=n454 I2=n208 
XU304 ND2 $PINS O=n470 I1=n182 I2=n181 
XU305 INV1S $PINS O=n479 I=n470 
XU306 ND2 $PINS O=n478 I1=n184 I2=n183 
XU307 INV1S $PINS O=n185 I=n478 
XU308 AOI12HS $PINS O=n500 A1=n185 B1=n29 B2=n479 
XU309 ND2 $PINS O=n497 I1=n187 I2=n186 
XU310 INV1S $PINS O=n191 I=n497 
XU311 ND2 $PINS O=n392 I1=n189 I2=n188 
XU312 INV1S $PINS O=n190 I=n392 
XU313 AOI12HS $PINS O=n192 A1=n190 B1=n28 B2=n191 
XU314 OAI12HS $PINS O=n453 A1=n192 B1=n500 B2=n193 
XU315 ND2 $PINS O=n451 I1=n195 I2=n194 
XU316 INV1S $PINS O=n199 I=n451 
XU317 INV1S $PINS O=n198 I=n211 
XU318 AOI12HS $PINS O=n231 A1=n198 B1=n180 B2=n199 
XU319 ND2 $PINS O=n250 I1=n201 I2=n200 
XU320 INV1S $PINS O=n204 I=n250 
XU321 AOI12HS $PINS O=n205 A1=n27 B1=n204 B2=n18 
XU322 OAI12HS $PINS O=n207 A1=n205 B1=n231 B2=n206 
XU323 AOI12HS $PINS O=n209 A1=n207 B1=n453 B2=n208 
XU324 OA12 $PINS O=n260 A1=n209 B1=n212 B2=n210 
XU325 INV1S $PINS O=n213 I=n454 
XU326 NR2 $PINS O=n217 I1=n214 I2=n213 
XU327 INV1S $PINS O=n215 I=n453 
XU328 OAI12HS $PINS O=n216 A1=n451 B1=n215 B2=n214 
XU329 AOI12HS $PINS O=n218 A1=n216 B1=FE_DBTN51_n212 B2=n217 
XU330 XOR2HS $PINS O=n220 I1=n219 I2=n218 
XU331 MOAI1S $PINS O=o_data[15] A1=FE_OFN1422_FE_DBTN50_n508 A2=n4 B1=n16 
+ B2=n220 
XU332 INV1S $PINS O=n223 I=n221 
XU333 INV1S $PINS O=n227 I=n224 
XU334 INV1S $PINS O=n226 I=n225 
XU335 AOI12HS $PINS O=n228 A1=n226 B1=n247 B2=n227 
XU336 INV1S $PINS O=n233 I=n230 
XU337 ND2 $PINS O=n252 I1=n454 I2=n233 
XU338 NR2 $PINS O=n236 I1=n234 I2=n252 
XU339 INV1S $PINS O=n232 I=n231 
XU340 AOI12HS $PINS O=n253 A1=n232 B1=n453 B2=n233 
XU341 OAI12HS $PINS O=n235 A1=n250 B1=n253 B2=n234 
XU342 AOI12HS $PINS O=n237 A1=n235 B1=FE_DBTN51_n212 B2=n236 
XU343 XOR2HS $PINS O=n238 I1=n27 I2=n237 
XU344 MOAI1S $PINS O=o_data[17] A1=n24 A2=FE_OFN1691_n508 B1=n17 B2=n238 
XU345 AOI12HS $PINS O=n241 A1=n239 B1=n247 B2=n240 
XU346 NR2 $PINS O=o_data[18] I1=n32 I2=FE_OFN1691_n508 
XU347 AOI12HS $PINS O=n248 A1=n245 B1=n247 B2=n246 
XU348 INV1S $PINS O=n255 I=n252 
XU349 INV1S $PINS O=n254 I=n253 
XU350 AOI12HS $PINS O=n256 A1=n254 B1=FE_DBTN51_n212 B2=n255 
XU351 XOR2HS $PINS O=n258 I1=n257 I2=n256 
XU352 MOAI1S $PINS O=o_data[16] A1=n5 A2=FE_OFN1422_FE_DBTN50_n508 B1=n16 
+ B2=n258 
XU353 OR2 $PINS O=n264 I1=n259 I2=n262 
XU354 INV1S $PINS O=n261 I=n259 
XU355 NR2 $PINS O=n263 I1=n261 I2=n260 
XU356 MOAI1S $PINS O=o_data[0] A1=FE_OFN1415_n25 A2=n264 B1=n263 B2=n262 
XU357 INV1S $PINS O=n267 I=n265 
XU358 INV1S $PINS O=n271 I=n268 
XU359 AOI12HS $PINS O=n272 A1=n270 B1=n297 B2=n271 
XU360 XOR2HS $PINS O=n274 I1=n273 I2=n272 
XU361 ND2 $PINS O=n279 I1=FE_DBTN52_n262 I2=n274 
XU362 INV1S $PINS O=n275 I=n288 
XU363 ND2S $PINS O=n277 I1=n275 I2=n287 
XU364 XOR2HS $PINS O=n278 I1=n277 I2=FE_OFN1416_n432 
XU365 MOAI1S $PINS O=o_data[2] A1=FE_OFN1415_n25 A2=n279 B1=n278 B2=n16 
XU366 INV1S $PINS O=n355 I=n280 
XU367 INV2 $PINS O=n356 I=n281 
XU368 XNR2HS $PINS O=n283 I1=n282 I2=n356 
XU369 ND2 $PINS O=n292 I1=n283 I2=FE_OFN1126_FE_DBTN52_n262 
XU370 INV1S $PINS O=n286 I=n284 
XU371 ND2S $PINS O=n290 I1=n286 I2=n285 
XU372 OAI12HS $PINS O=n289 A1=n287 B1=FE_OFN1416_n432 B2=n288 
XU373 XNR2HS $PINS O=n291 I1=n290 I2=n289 
XU374 MOAI1S $PINS O=o_data[3] A1=n25 A2=n292 B1=n291 B2=n17 
XU375 AOI12HS $PINS O=n298 A1=n295 B1=n297 B2=n296 
XU376 XOR2HS $PINS O=n300 I1=n299 I2=n298 
XU377 INV1S $PINS O=n303 I=n301 
XU378 ND2S $PINS O=n313 I1=n303 I2=n302 
XU379 INV1S $PINS O=n305 I=n304 
XU380 NR2 $PINS O=n311 I1=n308 I2=n305 
XU381 INV1S $PINS O=n309 I=n306 
XU382 OAI12HS $PINS O=n310 A1=n307 B1=n309 B2=n308 
XU383 NR2 $PINS O=n312 I1=n311 I2=n310 
XU384 XOR2HS $PINS O=n314 I1=n313 I2=n312 
XU385 MOAI1S $PINS O=o_data[1] A1=FE_OFN1415_n25 A2=n315 B1=n314 B2=n16 
XU386 INV1S $PINS O=n318 I=n316 
XU387 INV1S $PINS O=n319 I=n335 
XU388 NR2 $PINS O=n322 I1=n331 I2=n319 
XU389 INV1S $PINS O=n320 I=n334 
XU390 OAI12HS $PINS O=n321 A1=n332 B1=n320 B2=n331 
XU391 AOI12HS $PINS O=n323 A1=n321 B1=n356 B2=n322 
XU392 XOR2HS $PINS O=n325 I1=n324 I2=n323 
XU393 INV1S $PINS O=n381 I=n326 
XU394 OAI12HS $PINS O=n327 A1=n378 B1=FE_OFN1416_n432 B2=n377 
XU395 XNR2HS $PINS O=n329 I1=n328 I2=n327 
XU396 MOAI1S $PINS O=o_data[6] A1=n330 A2=FE_OFN1415_n25 B1=n329 B2=n17 
XU397 INV1S $PINS O=n333 I=n331 
XU398 AOI12HS $PINS O=n336 A1=n334 B1=n356 B2=n335 
XU399 XOR2HS $PINS O=n338 I1=n337 I2=n336 
XU400 INV1S $PINS O=n341 I=n339 
XU401 ND2S $PINS O=n347 I1=n341 I2=n340 
XU402 INV1S $PINS O=n362 I=n342 
XU403 INV1S $PINS O=n343 I=n361 
XU404 AOI12HS $PINS O=n344 A1=n343 B1=n364 B2=n362 
XU405 OAI12HS $PINS O=n346 A1=n344 B1=FE_OFN1416_n432 B2=n345 
XU406 XNR2HS $PINS O=n348 I1=n347 I2=n346 
XU408 INV1S $PINS O=n352 I=n350 
XU409 INV1S $PINS O=n354 I=n353 
XU410 AOI12HS $PINS O=n357 A1=n354 B1=n356 B2=n355 
XU411 XOR2HS $PINS O=n360 I1=n358 I2=n357 
XU412 INV1S $PINS O=n366 I=n363 
XU413 INV1S $PINS O=n365 I=n364 
XU414 OAI12HS $PINS O=n367 A1=n365 B1=FE_OFN1416_n432 B2=n366 
XU415 XNR2HS $PINS O=n369 I1=n368 I2=n367 
XU416 MOAI1S $PINS O=o_data[4] A1=n370 A2=n25 B1=n369 B2=n17 
XU417 INV1S $PINS O=n371 I=n403 
XU418 INV1S $PINS O=n376 I=n374 
XU419 INV1S $PINS O=n422 I=n377 
XU420 INV1S $PINS O=n429 I=n378 
XU421 INV1S $PINS O=n380 I=n379 
XU422 AOI12HS $PINS O=n382 A1=n380 B1=n429 B2=n381 
XU423 OAI12HS $PINS O=n384 A1=n382 B1=n432 B2=n383 
XU424 XNR2HS $PINS O=n386 I1=n385 I2=n384 
XU425 MOAI1 $PINS O=o_data[7] A1=FE_OFN1423_FE_DBTN50_n508 A2=n21 B1=n507 
+ B2=n386 
XU426 INV1S $PINS O=n387 I=n443 
XU427 INV1S $PINS O=n487 I=n475 
XU428 ND2 $PINS O=n389 I1=n487 I2=n439 
XU429 INV1S $PINS O=n491 I=n474 
XU430 AOI12HS $PINS O=n388 A1=n441 B1=n491 B2=n439 
XU431 OAI12HS $PINS O=n390 A1=n388 B1=FE_OFN1125_FE_DBTN53_n372 B2=n389 
XU432 NR2 $PINS O=n395 I1=n393 I2=n499 
XU433 OAI12HS $PINS O=n394 A1=n497 B1=n500 B2=n393 
XU434 AOI12HS $PINS O=n396 A1=n394 B1=FE_OFN1127_FE_DBTN51_n212 B2=n395 
XU435 XOR2HS $PINS O=n398 I1=n397 I2=n396 
XU436 MOAI1 $PINS O=o_data[13] A1=n2 A2=FE_OFN1423_FE_DBTN50_n508 B1=n507 
+ B2=n398 
XU437 INV1S $PINS O=n401 I=n399 
XU438 OAI12HS $PINS O=n404 A1=n402 B1=FE_DBTN53_n372 B2=n403 
XU439 INV1S $PINS O=n406 I=n425 
XU440 AOI12HS $PINS O=n407 A1=n423 B1=n429 B2=n420 
XU441 OAI12HS $PINS O=n409 A1=n407 B1=n432 B2=n408 
XU442 XNR2HS $PINS O=n411 I1=n410 I2=n409 
XU443 MOAI1 $PINS O=o_data[8] A1=FE_OFN1691_n508 A2=n31 B1=n507 B2=n411 
XU444 INV1S $PINS O=n464 I=n412 
XU445 INV1S $PINS O=n414 I=n461 
XU446 INV1S $PINS O=n413 I=n465 
XU447 OAI12HS $PINS O=n415 A1=n413 B1=FE_OFN1125_FE_DBTN53_n372 B2=n414 
XU448 INV1S $PINS O=n419 I=n417 
XU449 ND2S $PINS O=n434 I1=n419 I2=n418 
XU450 INV1S $PINS O=n421 I=n420 
XU451 NR2 $PINS O=n428 I1=n425 I2=n421 
XU452 INV1S $PINS O=n426 I=n423 
XU453 OAI12HS $PINS O=n427 A1=n424 B1=n426 B2=n425 
XU454 AOI12HS $PINS O=n430 A1=n427 B1=n429 B2=n428 
XU455 OAI12HS $PINS O=n433 A1=n430 B1=n432 B2=n431 
XU456 XNR2HS $PINS O=n435 I1=n434 I2=n433 
XU457 MOAI1 $PINS O=o_data[9] A1=n22 A2=FE_OFN1691_n508 B1=n507 B2=n435 
XU458 INV1S $PINS O=n438 I=n436 
XU459 INV1S $PINS O=n440 I=n439 
XU460 NR2 $PINS O=n446 I1=n443 I2=n440 
XU461 ND2 $PINS O=n448 I1=n446 I2=n487 
XU462 INV1S $PINS O=n444 I=n441 
XU463 OAI12HS $PINS O=n445 A1=n442 B1=n444 B2=n443 
XU464 AOI12HS $PINS O=n447 A1=n445 B1=n491 B2=n446 
XU465 OAI12HS $PINS O=n449 A1=n447 B1=FE_OFN1125_FE_DBTN53_n372 B2=n448 
XU466 AOI12HS $PINS O=n455 A1=n453 B1=FE_DBTN51_n212 B2=n454 
XU467 XOR2HS $PINS O=n457 I1=n456 I2=n455 
XU468 MOAI1 $PINS O=o_data[14] A1=n3 A2=FE_OFN1422_FE_DBTN50_n508 B1=n16 
+ B2=n457 
XU469 INV1S $PINS O=n460 I=n458 
XU470 INV1S $PINS O=n463 I=n462 
XU471 AOI12HS $PINS O=n466 A1=n463 B1=n465 B2=n464 
XU472 OAI12HS $PINS O=n468 A1=n466 B1=FE_OFN1125_FE_DBTN53_n372 B2=n467 
XU473 XNR2HS $PINS O=n472 I1=n471 I2=FE_OFN1127_FE_DBTN51_n212 
XU474 MOAI1 $PINS O=o_data[10] A1=n23 A2=FE_OFN1423_FE_DBTN50_n508 B1=n507 
+ B2=n472 
XU475 INV1S $PINS O=n490 I=n473 
XU476 OAI12HS $PINS O=n476 A1=n474 B1=FE_OFN1125_FE_DBTN53_n372 B2=n475 
XU477 AOI12HS $PINS O=n481 A1=n479 B1=FE_OFN1127_FE_DBTN51_n212 B2=n480 
XU478 XOR2HS $PINS O=n483 I1=n482 I2=n481 
XU479 MOAI1 $PINS O=o_data[11] A1=n30 A2=FE_OFN1423_FE_DBTN50_n508 B1=n507 
+ B2=n483 
XU480 INV1S $PINS O=n486 I=n484 
XU481 ND2 $PINS O=n493 I1=n487 I2=n490 
XU482 INV1S $PINS O=n489 I=n488 
XU483 AOI12HS $PINS O=n492 A1=n489 B1=n491 B2=n490 
XU484 OAI12HS $PINS O=n495 A1=n492 B1=FE_OFN1125_FE_DBTN53_n372 B2=n493 
XU485 INV1S $PINS O=n502 I=n499 
XU486 INV1S $PINS O=n501 I=n500 
XU487 AOI12HS $PINS O=n504 A1=n501 B1=FE_OFN1127_FE_DBTN51_n212 B2=n502 
XU488 XOR2HS $PINS O=n506 I1=n505 I2=n504 
XU489 MOAI1 $PINS O=o_data[12] A1=n1 A2=FE_OFN1423_FE_DBTN50_n508 B1=n17 
+ B2=n506 
.ENDS

.SUBCKT pMaxPool_1 i_data_0[20] i_data_0[19] i_data_0[18] i_data_0[17] 
+ i_data_0[16] i_data_0[15] i_data_0[14] i_data_0[13] i_data_0[12] i_data_0[11] 
+ i_data_0[10] i_data_0[9] i_data_0[8] i_data_0[7] i_data_0[6] i_data_0[5] 
+ i_data_0[4] i_data_0[3] i_data_0[2] i_data_0[1] i_data_0[0] i_data_1[20] 
+ i_data_1[19] i_data_1[18] i_data_1[17] i_data_1[16] i_data_1[15] i_data_1[14] 
+ i_data_1[13] i_data_1[12] i_data_1[11] i_data_1[10] i_data_1[9] i_data_1[8] 
+ i_data_1[7] i_data_1[6] i_data_1[5] i_data_1[4] i_data_1[3] i_data_1[2] 
+ i_data_1[1] i_data_1[0] o_data[20] o_data[19] o_data[18] o_data[17] 
+ o_data[16] o_data[15] o_data[14] o_data[13] o_data[12] o_data[11] o_data[10] 
+ o_data[9] o_data[8] o_data[7] o_data[6] o_data[5] o_data[4] o_data[3] 
+ o_data[2] o_data[1] o_data[0] 
XU1 OA12 $PINS O=n4 A1=n86 B1=n88 B2=n87 
XU2 INV1S $PINS O=n85 I=i_data_1[18] 
XU3 OA12 $PINS O=n3 A1=n4 B1=n89 B2=n5 
XU4 OA12 $PINS O=n2 A1=n4 B1=n89 B2=n5 
XU5 OA12 $PINS O=n1 A1=n4 B1=n89 B2=n5 
XU6 ND2S $PINS O=n45 I1=n44 I2=n58 
XU7 ND2S $PINS O=n37 I1=n22 I2=n35 
XU8 NR2 $PINS O=n71 I1=n68 I2=n40 
XU9 ND2S $PINS O=n30 I1=n29 I2=i_data_0[7] 
XU10 ND2S $PINS O=n53 I1=n52 I2=i_data_0[11] 
XU11 ND2S $PINS O=n61 I1=n60 I2=i_data_0[13] 
XU12 ND2S $PINS O=n67 I1=n64 I2=i_data_0[14] 
XU13 ND2S $PINS O=n66 I1=n65 I2=i_data_0[15] 
XU14 INV1S $PINS O=n65 I=i_data_1[15] 
XU15 OA12 $PINS O=n90 A1=n4 B1=n89 B2=n5 
XU16 AOI12HS $PINS O=n89 A1=n75 B1=n77 B2=n76 
XU17 OR2 $PINS O=n5 I1=n87 I2=n79 
XU18 NR2 $PINS O=n68 I1=i_data_0[15] I2=n65 
XU19 INV1S $PINS O=n13 I=i_data_1[3] 
XU20 NR2 $PINS O=n16 I1=i_data_0[3] I2=n13 
XU21 INV1S $PINS O=n12 I=i_data_1[2] 
XU22 NR2 $PINS O=n6 I1=i_data_0[2] I2=n12 
XU23 NR2 $PINS O=n19 I1=n16 I2=n6 
XU24 INV1S $PINS O=n8 I=i_data_1[1] 
XU25 NR2 $PINS O=n11 I1=i_data_0[1] I2=n8 
XU26 INV1S $PINS O=n7 I=i_data_1[0] 
XU27 NR2 $PINS O=n10 I1=i_data_0[0] I2=n7 
XU28 ND2S $PINS O=n9 I1=n8 I2=i_data_0[1] 
XU29 OAI12HS $PINS O=n18 A1=n9 B1=n11 B2=n10 
XU30 ND2S $PINS O=n15 I1=n12 I2=i_data_0[2] 
XU31 ND2S $PINS O=n14 I1=n13 I2=i_data_0[3] 
XU32 OAI12HS $PINS O=n17 A1=n14 B1=n16 B2=n15 
XU33 AOI12HS $PINS O=n38 A1=n17 B1=n19 B2=n18 
XU34 INV1S $PINS O=n24 I=i_data_1[5] 
XU35 NR2 $PINS O=n27 I1=i_data_0[5] I2=n24 
XU36 INV1S $PINS O=n23 I=i_data_1[4] 
XU37 NR2 $PINS O=n20 I1=i_data_0[4] I2=n23 
XU38 NR2 $PINS O=n22 I1=n27 I2=n20 
XU39 INV1S $PINS O=n29 I=i_data_1[7] 
XU40 NR2 $PINS O=n32 I1=i_data_0[7] I2=n29 
XU41 INV1S $PINS O=n28 I=i_data_1[6] 
XU42 NR2 $PINS O=n21 I1=i_data_0[6] I2=n28 
XU43 NR2 $PINS O=n35 I1=n32 I2=n21 
XU44 ND2S $PINS O=n26 I1=n23 I2=i_data_0[4] 
XU45 ND2S $PINS O=n25 I1=n24 I2=i_data_0[5] 
XU46 OAI12HS $PINS O=n34 A1=n25 B1=n27 B2=n26 
XU47 ND2S $PINS O=n31 I1=n28 I2=i_data_0[6] 
XU48 OAI12HS $PINS O=n33 A1=n30 B1=n32 B2=n31 
XU49 AOI12HS $PINS O=n36 A1=n33 B1=n35 B2=n34 
XU50 OAI12HS $PINS O=n77 A1=n36 B1=n38 B2=n37 
XU51 INV1S $PINS O=n60 I=i_data_1[13] 
XU52 NR2 $PINS O=n63 I1=i_data_0[13] I2=n60 
XU53 INV1S $PINS O=n59 I=i_data_1[12] 
XU54 NR2 $PINS O=n39 I1=i_data_0[12] I2=n59 
XU55 NR2 $PINS O=n41 I1=n63 I2=n39 
XU56 INV1S $PINS O=n64 I=i_data_1[14] 
XU57 NR2 $PINS O=n40 I1=i_data_0[14] I2=n64 
XU58 ND2 $PINS O=n73 I1=n41 I2=n71 
XU59 INV1S $PINS O=n47 I=i_data_1[9] 
XU60 NR2 $PINS O=n50 I1=i_data_0[9] I2=n47 
XU61 INV1S $PINS O=n46 I=i_data_1[8] 
XU62 NR2 $PINS O=n42 I1=i_data_0[8] I2=n46 
XU63 NR2 $PINS O=n44 I1=n50 I2=n42 
XU64 INV1S $PINS O=n52 I=i_data_1[11] 
XU65 NR2 $PINS O=n55 I1=i_data_0[11] I2=n52 
XU66 INV1S $PINS O=n51 I=i_data_1[10] 
XU67 NR2 $PINS O=n43 I1=i_data_0[10] I2=n51 
XU68 NR2 $PINS O=n58 I1=n55 I2=n43 
XU69 NR2 $PINS O=n76 I1=n73 I2=n45 
XU70 ND2S $PINS O=n49 I1=n46 I2=i_data_0[8] 
XU71 ND2S $PINS O=n48 I1=n47 I2=i_data_0[9] 
XU72 OAI12HS $PINS O=n57 A1=n48 B1=n50 B2=n49 
XU73 ND2S $PINS O=n54 I1=n51 I2=i_data_0[10] 
XU74 OAI12HS $PINS O=n56 A1=n53 B1=n55 B2=n54 
XU75 AOI12HS $PINS O=n74 A1=n56 B1=n58 B2=n57 
XU76 ND2S $PINS O=n62 I1=n59 I2=i_data_0[12] 
XU77 OAI12HS $PINS O=n70 A1=n61 B1=n63 B2=n62 
XU78 OAI12HS $PINS O=n69 A1=n66 B1=n68 B2=n67 
XU79 AOI12HS $PINS O=n72 A1=n69 B1=n71 B2=n70 
XU80 OAI12HS $PINS O=n75 A1=n72 B1=n74 B2=n73 
XU81 NR2 $PINS O=n87 I1=i_data_0[18] I2=n85 
XU82 INV1S $PINS O=n80 I=i_data_1[16] 
XU83 OR2 $PINS O=n78 I1=i_data_0[16] I2=n80 
XU84 INV1S $PINS O=n81 I=i_data_1[17] 
XU85 OR2 $PINS O=n84 I1=i_data_0[17] I2=n81 
XU86 ND2 $PINS O=n79 I1=n78 I2=n84 
XU87 AN2 $PINS O=n83 I1=n80 I2=i_data_0[16] 
XU88 AN2 $PINS O=n82 I1=n81 I2=i_data_0[17] 
XU89 AOI12HS $PINS O=n88 A1=n82 B1=n84 B2=n83 
XU90 ND2 $PINS O=n86 I1=n85 I2=i_data_0[18] 
XU91 MUX2 $PINS O=o_data[0] S=n90 A=i_data_0[0] B=i_data_1[0] 
XU92 MUX2 $PINS O=o_data[1] S=n2 A=i_data_0[1] B=i_data_1[1] 
XU93 MUX2 $PINS O=o_data[2] S=n1 A=i_data_0[2] B=i_data_1[2] 
XU94 MUX2 $PINS O=o_data[3] S=n90 A=i_data_0[3] B=i_data_1[3] 
XU95 MUX2 $PINS O=o_data[4] S=n3 A=i_data_0[4] B=i_data_1[4] 
XU96 MUX2 $PINS O=o_data[5] S=n2 A=i_data_0[5] B=i_data_1[5] 
XU97 MUX2 $PINS O=o_data[6] S=n90 A=i_data_0[6] B=i_data_1[6] 
XU98 MUX2 $PINS O=o_data[7] S=n1 A=i_data_0[7] B=i_data_1[7] 
XU99 MUX2 $PINS O=o_data[8] S=n3 A=i_data_0[8] B=i_data_1[8] 
XU100 MUX2 $PINS O=o_data[9] S=n90 A=i_data_0[9] B=i_data_1[9] 
XU101 MUX2 $PINS O=o_data[10] S=n2 A=i_data_0[10] B=i_data_1[10] 
XU102 MUX2 $PINS O=o_data[11] S=n1 A=i_data_0[11] B=i_data_1[11] 
XU103 MUX2 $PINS O=o_data[12] S=n2 A=i_data_0[12] B=i_data_1[12] 
XU104 MUX2 $PINS O=o_data[13] S=n3 A=i_data_0[13] B=i_data_1[13] 
XU105 MUX2 $PINS O=o_data[14] S=n2 A=i_data_0[14] B=i_data_1[14] 
XU106 MUX2 $PINS O=o_data[15] S=n1 A=i_data_0[15] B=i_data_1[15] 
XU107 MUX2 $PINS O=o_data[16] S=n1 A=i_data_0[16] B=i_data_1[16] 
XU108 MUX2 $PINS O=o_data[17] S=n3 A=i_data_0[17] B=i_data_1[17] 
XU109 MUX2 $PINS O=o_data[18] S=n3 A=i_data_0[18] B=i_data_1[18] 
.ENDS

.SUBCKT pMaxPool_0 i_data_0[20] i_data_0[19] i_data_0[18] i_data_0[17] 
+ i_data_0[16] i_data_0[15] i_data_0[14] i_data_0[13] i_data_0[12] i_data_0[11] 
+ i_data_0[10] i_data_0[9] i_data_0[8] i_data_0[7] i_data_0[6] i_data_0[5] 
+ i_data_0[4] i_data_0[3] i_data_0[2] i_data_0[1] i_data_0[0] i_data_1[20] 
+ i_data_1[19] i_data_1[18] i_data_1[17] i_data_1[16] i_data_1[15] i_data_1[14] 
+ i_data_1[13] i_data_1[12] i_data_1[11] i_data_1[10] i_data_1[9] i_data_1[8] 
+ i_data_1[7] i_data_1[6] i_data_1[5] i_data_1[4] i_data_1[3] i_data_1[2] 